/*--------------------------------*- C++ -*----------------------------------*\
| =========                 |                                                 |
| \\      /  F ield         | OpenFOAM: The Open Source CFD Toolbox           |
|  \\    /   O peration     | Version:  2112                                  |
|   \\  /    A nd           | Website:  www.openfoam.com                      |
|    \\/     M anipulation  |                                                 |
\*---------------------------------------------------------------------------*/
FoamFile
{
    version     2.0;
    format      ascii;
    arch        "LSB;label=32;scalar=64";
    class       scalarListList;
    location    "constant/space";
    object      F;
}
// * * * * * * * * * * * * * * * * * * * * * * * * * * * * * * * * * * * * * //


78
(

65
(
0.007417028
0.009302056
0.00762633
0.003458283
0.008869625
0.007340917
0.002211569
0.005381191
0.006356421
0.00484431
0.006152707
0.002678022
0.006743681
0.004493119
0.01958187
0.05094984
0.2284182
0.01319272
0.004634232
0.01455174
0.002334036
0.004205592
0.008916489
0.006329948
0.002005088
0.002862815
0.02163493
0.01732176
0.01219482
0.008915993
0.01680478
0.01971375
0.007264796
0.0147736
0.01377564
0.008979522
0.01135976
0.00809112
0.01489384
0.004089348
0.007402703
0.02235275
0.1649887
0.1124216
0.00241502
0.01467578
0.01976831
0.004071711
0.007317851
0.005226334
0.002966003
0.002508081
0.007417028
0.008712217
0.009680755
0.005825655
0.002384309
0.005653203
0.008302891
0.005510515
0.006735917
0.002117934
0.005871029
0.007045177
0.004134584
)


65
(
0.008712219
0.01325418
0.01340812
0.00653319
0.01351669
0.009360128
0.004443763
0.006643142
0.009103427
0.008880747
0.01003029
0.004501109
0.008969501
0.006155218
0.01811534
0.04923571
0.07653317
0.0206985
0.007703221
0.09072133
0.004658061
0.009174352
0.02611503
0.01579154
0.006946245
0.006933967
0.01983115
0.01957837
0.01619166
0.01230894
0.02031156
0.02023475
0.01068204
0.01546566
0.01677916
0.0128314
0.01524993
0.01182145
0.01807105
0.008012623
0.01383429
0.02855235
0.04406094
0.03185694
0.005676496
0.02704747
0.03191759
0.009588771
0.01417381
0.01343275
0.007965207
0.00757752
0.007812324
0.01025911
0.01157627
0.007521963
0.004043234
0.006860973
0.012318
0.009516989
0.009050876
0.004013973
0.009423521
0.009870149
0.006950046
)


65
(
0.009680754
0.0225006
0.02912498
0.01940331
0.01881013
0.009850434
0.00687499
0.005780731
0.008831146
0.01100506
0.01082987
0.003918462
0.007156504
0.003014535
0.006914131
0.02440571
0.02623688
0.01285344
0.004719092
0.1962875
0.003577746
0.008725031
0.051772
0.02009731
0.06413746
0.007699297
0.01654215
0.02138147
0.01990997
0.01709304
0.02020361
0.01621199
0.01308551
0.0110139
0.01388824
0.01365481
0.01435028
0.01223281
0.01365396
0.009430259
0.0134831
0.0213909
0.01980262
0.008168501
0.006343113
0.01672226
0.01307945
0.008923592
0.004715279
0.009134096
0.007804511
0.005422662
0.0060884
0.007692609
0.007101546
0.003921461
0.002438633
0.006712291
0.009179008
0.00742211
0.008484759
0.003544887
0.009228459
0.0114384
0.008512539
)


65
(
0.005825656
0.02331671
0.05265283
0.1567594
0.01588779
0.005954319
0.009943239
0.003048776
0.005349681
0.01001547
0.007728284
0.002476475
0.003726462
0.001528755
0.002210003
0.005256636
0.002541654
0.005103464
0.002722058
0.0619103
0.002927027
0.007241902
0.03799895
0.01546278
0.2562048
0.009892682
0.01071768
0.01789972
0.02045751
0.02103626
0.01639372
0.0108302
0.01546859
0.007247273
0.01044384
0.01367733
0.0124024
0.01303014
0.01027384
0.007823912
0.009407725
0.0109529
0.006893497
0.002792874
0.005785843
0.009190156
0.006176048
0.007043269
0.002342833
0.006236135
0.00712225
0.00425956
0.004375106
0.005473203
0.0044041
0.002241307
0.001624284
0.006060394
0.006754411
0.006046402
0.007410128
0.003284802
0.008706875
0.01260308
0.01031367
)


65
(
0.002384309
0.00867294
0.03483351
0.1409711
0.01031916
0.003176993
0.2086579
0.001928375
0.004407832
0.02513974
0.009659653
0.03930383
0.00328466
0.003074281
0.003417246
0.005349587
0.002135872
0.006980259
0.005195651
0.01536226
0.006434688
0.01214098
0.02608143
0.01878113
0.05853736
0.02051123
0.00801936
0.01371521
0.0187928
0.01988036
0.01490888
0.009401619
0.02000962
0.007269383
0.01139989
0.01755439
0.01474013
0.02026379
0.01274825
0.006406921
0.007667937
0.007432293
0.004122985
0.002109624
0.0061332
0.008065178
0.005851172
0.007392531
0.002549371
0.00713298
0.009178724
0.005980371
0.003848719
0.005374546
0.00424079
0.002239294
0.002359601
0.006292415
0.008440512
0.01085753
0.008708413
0.008342904
0.01425609
0.01694215
0.02506989
)


65
(
0.005653206
0.005926166
0.005405271
0.00221724
0.00742497
0.006770423
0.002568979
0.006360659
0.007666108
0.00610694
0.007640539
0.004707186
0.01023627
0.009241111
0.02033195
0.02401168
0.01706508
0.01535544
0.008806233
0.00450058
0.005183649
0.007246918
0.007620974
0.008142879
0.002856734
0.006082938
0.01620533
0.01190751
0.009797874
0.006850793
0.01491173
0.01949277
0.007639443
0.02079639
0.01797528
0.0106926
0.01424535
0.01150595
0.02636477
0.001567392
0.003199846
0.005873468
0.01216542
0.2473664
0.001670827
0.01244015
0.03899896
0.003539462
0.1496432
0.01068454
0.003842178
0.01521914
0.008828523
0.01276859
0.02437
0.03490657
0.01092213
0.005373968
0.01544282
0.01231967
0.007467205
0.003980989
0.007275753
0.006158896
0.004048724
)


65
(
0.008302893
0.01597885
0.02699828
0.01567652
0.02108243
0.01077132
0.01693493
0.007746772
0.01385722
0.02528631
0.02050898
0.01136444
0.0126434
0.006664617
0.01163967
0.02315579
0.01302818
0.0191723
0.009772838
0.02687177
0.008012405
0.01570458
0.03681099
0.02588169
0.0206902
0.0158334
0.01446343
0.01798874
0.01943583
0.01609676
0.0210885
0.01719696
0.01659319
0.01406618
0.01845089
0.01866096
0.01958936
0.01897057
0.02079843
0.008304624
0.01277783
0.01638919
0.01300714
0.009677297
0.007755108
0.02098931
0.02037965
0.0119841
0.009594958
0.01600889
0.01267164
0.01180334
0.007040632
0.01054355
0.01114451
0.007347524
0.006526017
0.007908438
0.01744516
0.0183409
0.01203168
0.01014197
0.01749781
0.0150386
0.01605943
)


65
(
0.005510518
0.01240553
0.03253275
0.02586519
0.01951708
0.008155463
0.0500994
0.006316691
0.01402113
0.05012908
0.02719284
0.03367477
0.01360372
0.005077092
0.006234283
0.009488534
0.004077484
0.01123053
0.0077878
0.01511342
0.008067775
0.01412265
0.02595247
0.02052621
0.02579898
0.01881993
0.009713758
0.01406998
0.01823054
0.01668956
0.01732009
0.01236738
0.01983173
0.01077873
0.01599213
0.02061662
0.01919551
0.02446415
0.019641
0.006735018
0.009100474
0.009061113
0.005430922
0.003577034
0.007339908
0.01202874
0.01047809
0.009957337
0.005182247
0.01196033
0.01309951
0.01123185
0.004873225
0.00773839
0.007245754
0.00456633
0.008022825
0.006951605
0.01619391
0.02776235
0.01141359
0.02754997
0.02364891
0.01744958
0.03419731
)


65
(
0.006735917
0.008233657
0.009247659
0.003976191
0.01132729
0.008689587
0.005413351
0.007804196
0.01108645
0.01164935
0.01274114
0.008240209
0.01339241
0.009305517
0.01823081
0.02424707
0.01427941
0.01881685
0.01052439
0.008125065
0.006976098
0.01084098
0.01380268
0.01356834
0.005763013
0.009637456
0.0159229
0.01425378
0.01340381
0.00976265
0.01844047
0.02010503
0.01130438
0.02002344
0.02086864
0.01506127
0.01854632
0.01611903
0.02790276
0.00524828
0.00988655
0.0141227
0.01547697
0.04698781
0.005827533
0.02969814
0.05712457
0.01133938
0.05082598
0.02615388
0.01252286
0.02317282
0.009013335
0.01422666
0.02263002
0.02269899
0.01534997
0.006946371
0.02352177
0.02314999
0.01087852
0.009917659
0.01377434
0.009826462
0.008434238
)


65
(
0.00199335
0.004001641
0.01346484
0.01340013
0.008041128
0.00331091
0.09629829
0.002935755
0.007392433
0.0458063
0.01696701
0.2134106
0.008200065
0.004029231
0.004043891
0.004858496
0.001894717
0.006919621
0.006041239
0.00544786
0.007153569
0.01041911
0.01235361
0.01254411
0.01510369
0.01701266
0.006385981
0.009692656
0.01423831
0.01398638
0.01267518
0.008604257
0.01996524
0.008109198
0.01279907
0.01951601
0.0165854
0.02796903
0.01732438
0.00501228
0.006257462
0.005358759
0.002825331
0.001865648
0.006267158
0.007497499
0.006324143
0.007708766
0.003224287
0.008643345
0.01195969
0.009254747
0.00278305
0.004487716
0.003783135
0.002225588
0.004390113
0.004762987
0.009861867
0.02255487
0.007969459
0.06374831
0.02017542
0.01526465
0.0727583
)


65
(
0.005871029
0.008143554
0.01315353
0.005973751
0.01419742
0.008893834
0.0164549
0.008467544
0.01552066
0.02877908
0.02315198
0.02381756
0.01878413
0.007170838
0.009654524
0.01207044
0.005483026
0.01348656
0.009411942
0.007248021
0.008125654
0.01226037
0.01453179
0.01494715
0.009297769
0.01395914
0.01103359
0.01261651
0.01500183
0.01202538
0.01749347
0.01525888
0.01631179
0.01560383
0.0202318
0.02004836
0.02138561
0.02431808
0.0280364
0.005989663
0.009412347
0.009467171
0.00624791
0.0072327
0.007737702
0.0178829
0.02254775
0.01238873
0.01464019
0.02136973
0.01732429
0.02379575
0.006269593
0.01125861
0.01508252
0.01397162
0.02718054
0.006778049
0.02919854
0.04750926
0.01257003
0.03632317
0.02596134
0.013792
0.02228339
)


65
(
0.004335494
0.004298311
0.004701975
0.00183639
0.006805106
0.006176701
0.003830769
0.007038668
0.009475077
0.009251863
0.01048459
0.009862846
0.01508827
0.007512254
0.009635129
0.008548055
0.003903783
0.009789508
0.007821578
0.002755018
0.005880329
0.007237636
0.005933032
0.007283761
0.003316691
0.007739498
0.009759509
0.008349561
0.008762048
0.006394609
0.01235488
0.01430106
0.009322858
0.01890104
0.0186699
0.01329647
0.01649087
0.01744074
0.03369059
0.002457407
0.004267339
0.003952341
0.002625052
0.009345682
0.004053705
0.01140082
0.0313719
0.007400079
0.1150685
0.02167518
0.01310292
0.07583631
0.004522032
0.008340342
0.02169502
0.1150428
0.1385531
0.003044739
0.01909339
0.02864267
0.005377371
0.01550791
0.007907456
0.004173443
0.004059344
)


65
(
0.003006971
0.003398544
0.005365124
0.00215172
0.006930236
0.00507606
0.01650913
0.006189918
0.01183065
0.02630057
0.01850306
0.07567498
0.01961573
0.005220127
0.005352868
0.00515175
0.002079085
0.007224393
0.006612099
0.002827482
0.006613054
0.00816282
0.006787742
0.008327047
0.005699015
0.01153301
0.006542365
0.007746596
0.01054208
0.008993282
0.01162033
0.009809843
0.01534824
0.01166354
0.01591528
0.01835022
0.01806561
0.02831942
0.02652892
0.003967474
0.005527795
0.004404326
0.002342056
0.002458455
0.006365858
0.008668964
0.01091181
0.008794798
0.008019067
0.01415535
0.01667692
0.02307032
0.001825435
0.003627461
0.005103108
0.005916432
0.1324183
0.002282073
0.01370933
0.04369416
0.004785844
0.1892893
0.01547554
0.006008959
0.037712
)


65
(
0.007417028
0.008712217
0.009680755
0.005825655
0.002384309
0.005653203
0.008302891
0.005510515
0.006735917
0.002117934
0.005871029
0.007045177
0.004134584
0.004089348
0.002761254
0.002690832
0.001540569
0.005538572
0.009527545
0.00206637
0.04113447
0.02334778
0.004802123
0.01119612
0.002755976
0.2587532
0.004493119
0.01958187
0.05094984
0.2284182
0.01319272
0.004634232
0.01455174
0.002334036
0.004205592
0.008916489
0.006329948
0.002005088
0.002862815
0.02163493
0.01983115
0.01654215
0.01071768
0.008019359
0.01620532
0.01446343
0.009713754
0.0159229
0.006785105
0.01103359
0.0158592
0.00899575
0.007417028
0.007812322
0.006088401
0.004375105
0.003848719
0.008828519
0.007040631
0.004873223
0.009013335
0.002956991
0.006269593
0.007348301
0.002509973
)


65
(
0.009302058
0.01325418
0.02250061
0.02331671
0.008672941
0.005926164
0.01597885
0.01240552
0.008233659
0.004251744
0.008143555
0.006984755
0.004672998
0.002239316
0.002577326
0.004169933
0.002578447
0.006102497
0.005023769
0.008016161
0.009486325
0.03316723
0.02830213
0.04324751
0.1140766
0.2160052
0.009526188
0.02212486
0.02728553
0.01930306
0.01708341
0.009296495
0.005374637
0.005393495
0.007881018
0.008899874
0.00920084
0.003226863
0.00643899
0.01732176
0.01957837
0.02138148
0.01789972
0.01371521
0.0119075
0.01798874
0.01406997
0.01425378
0.01029845
0.01261652
0.01356804
0.01065157
0.006070851
0.007376432
0.006997573
0.006092193
0.006260547
0.005987627
0.008435304
0.007243585
0.007726973
0.005123693
0.007448179
0.005638984
0.003422639
)


65
(
0.007626331
0.01340812
0.02912499
0.05265283
0.03483351
0.005405269
0.02699828
0.03253274
0.009247661
0.0143064
0.01315354
0.00764071
0.007377045
0.003423645
0.005140967
0.009490834
0.007283243
0.009958145
0.005853944
0.02681079
0.005430223
0.01674259
0.04742636
0.03295248
0.1510814
0.01427355
0.008519559
0.01246442
0.01241503
0.005933162
0.01291778
0.009162937
0.004239258
0.006593291
0.008926791
0.008563953
0.009749625
0.004425711
0.008918036
0.01219482
0.01619166
0.01990998
0.02045751
0.01879281
0.009797871
0.01943583
0.01823054
0.01340382
0.01512821
0.01500183
0.01423833
0.01449535
0.005324398
0.007452931
0.007905581
0.007849093
0.01003975
0.005161118
0.0110173
0.01190994
0.008181184
0.009928984
0.01106603
0.00609562
0.006379616
)


65
(
0.003458284
0.00653319
0.01940332
0.1567594
0.1409711
0.00221724
0.01567652
0.02586518
0.003976192
0.01423764
0.005973752
0.002984134
0.002958615
0.001913372
0.003433157
0.007179345
0.006759727
0.005874404
0.002900396
0.03365903
0.00219775
0.006482936
0.03068321
0.01432932
0.1971823
0.004224186
0.007157572
0.00863259
0.007139031
0.003167239
0.008614637
0.007279767
0.002251083
0.005537236
0.006545032
0.0050036
0.006353275
0.002903554
0.007171623
0.008915994
0.01230894
0.01709304
0.02103626
0.01988037
0.006850791
0.01609676
0.01668955
0.009762652
0.01486053
0.01202538
0.01039124
0.01236576
0.003975521
0.005540241
0.006629321
0.007548291
0.01010801
0.003315058
0.008447882
0.009944939
0.005282692
0.009422113
0.007469676
0.00353547
0.004501993
)


65
(
0.008869625
0.01351669
0.01881013
0.01588778
0.01031916
0.007424966
0.02108243
0.01951707
0.01132729
0.008543698
0.01419741
0.01105829
0.009529072
0.006485914
0.007197906
0.0101646
0.006612792
0.01462851
0.01269387
0.01335391
0.01813131
0.0400889
0.02960999
0.04258897
0.02376044
0.05422085
0.009018653
0.01886778
0.02948673
0.01833399
0.02125549
0.010827
0.01240451
0.007227558
0.01221257
0.01909476
0.01683256
0.007630585
0.01062077
0.01680477
0.02031155
0.02020361
0.01639371
0.01490888
0.01491172
0.0210885
0.01732008
0.01844047
0.01346738
0.01749347
0.02007668
0.01597795
0.00748249
0.01008379
0.008810617
0.007217434
0.008294122
0.009283445
0.01309713
0.01180875
0.01331901
0.008243665
0.01478709
0.01168719
0.007664308
)


65
(
0.007340919
0.009360129
0.009850438
0.005954319
0.003176994
0.006770421
0.01077132
0.008155461
0.00868959
0.003517843
0.008893837
0.01003714
0.006979583
0.008566938
0.006472757
0.006464067
0.003952577
0.01177642
0.01680566
0.005089486
0.03640489
0.0314153
0.01019953
0.01942289
0.005493564
0.05713517
0.005186956
0.01588749
0.04989558
0.07998773
0.01981359
0.006831434
0.1097845
0.004215834
0.00901245
0.03449721
0.01753181
0.01018242
0.006799963
0.01971376
0.02023475
0.01621199
0.0108302
0.009401621
0.01949277
0.01719696
0.01236737
0.02010504
0.009142025
0.01525889
0.02323923
0.01348853
0.009119816
0.01062708
0.007520291
0.005108903
0.004876117
0.01496529
0.01047176
0.007271004
0.01589473
0.004299288
0.01166267
0.01680713
0.005092446
)


65
(
0.00221157
0.004443763
0.006874992
0.009943238
0.208658
0.002568978
0.01693493
0.05009939
0.005413352
0.1023169
0.0164549
0.006225
0.02270005
0.003918411
0.006426161
0.01074884
0.01056189
0.008999901
0.005175691
0.02147536
0.00368646
0.007837772
0.01924798
0.01285415
0.02162345
0.004486346
0.005784644
0.006161293
0.00584871
0.00240148
0.007958218
0.007083275
0.002958942
0.006681157
0.008307898
0.006955502
0.008500642
0.005384429
0.01101181
0.007264797
0.01068204
0.01308551
0.01546859
0.02000962
0.007639441
0.01659319
0.01983173
0.01130438
0.02121307
0.01631179
0.01514964
0.02110383
0.003585317
0.00586235
0.007113916
0.008468618
0.01780965
0.003449796
0.01262924
0.02348713
0.006915463
0.03519814
0.0164905
0.005330956
0.02265466
)


65
(
0.005381192
0.006643142
0.005780733
0.003048776
0.001928375
0.006360657
0.007746772
0.00631669
0.007804197
0.00311924
0.008467546
0.01143784
0.008511136
0.00906969
0.006633933
0.00577826
0.003915549
0.009457454
0.01348059
0.00389641
0.01892462
0.01426533
0.005931851
0.009450499
0.002801789
0.01519711
0.001808973
0.003710652
0.01350293
0.01553952
0.007696228
0.003015402
0.2021016
0.002577326
0.006621025
0.04690616
0.01593716
0.144697
0.006749151
0.01477361
0.01546566
0.0110139
0.007247272
0.007269384
0.02079638
0.01406618
0.01077872
0.02002344
0.008616024
0.01560384
0.03071419
0.01603737
0.009034532
0.01067362
0.006071688
0.003593176
0.0033836
0.03102544
0.00976598
0.005995923
0.02400339
0.003207161
0.01423809
0.0565607
0.006806917
)


65
(
0.00635642
0.009103425
0.008831146
0.005349679
0.004407831
0.007666104
0.01385722
0.01402113
0.01108645
0.007854459
0.01552066
0.015397
0.01626713
0.008436349
0.008086903
0.008744414
0.006184963
0.01244409
0.01301428
0.007485927
0.01511208
0.018576
0.01146243
0.01595995
0.006145814
0.01646911
0.005592552
0.009671581
0.02118615
0.01215726
0.01730725
0.008653843
0.03534408
0.007573471
0.0157724
0.04407773
0.02783028
0.03053385
0.01711335
0.01377564
0.01677915
0.01388824
0.01044383
0.01139988
0.01797527
0.01845088
0.01599212
0.02086864
0.01359901
0.0202318
0.03033859
0.0218835
0.008108339
0.01205611
0.008201977
0.005641437
0.006771396
0.0184391
0.01645009
0.01436014
0.02742907
0.008468234
0.03412538
0.05110285
0.02924713
)


65
(
0.004844311
0.008880747
0.01100506
0.01001547
0.02513974
0.006106939
0.02528631
0.05012907
0.01164935
0.0486692
0.02877908
0.01503428
0.03616329
0.0054996
0.007683364
0.01110976
0.009554135
0.01112616
0.007537252
0.01550016
0.005967119
0.0113155
0.01802877
0.01561556
0.01373524
0.007063785
0.006085729
0.007160572
0.008260773
0.003467225
0.01049438
0.008240458
0.005617603
0.007962464
0.0115114
0.01241503
0.01341945
0.01016723
0.01506798
0.008979524
0.0128314
0.01365481
0.01367733
0.01755439
0.01069259
0.01866096
0.02061661
0.01506127
0.02073576
0.02004836
0.02160676
0.02523155
0.004635622
0.007981793
0.008078052
0.007963478
0.01546009
0.005817723
0.01761277
0.03182085
0.01270592
0.03208931
0.03474263
0.01316411
0.05033937
)


65
(
0.006152708
0.01003029
0.01082988
0.007728284
0.009659655
0.007640538
0.02050898
0.02719283
0.01274114
0.01802745
0.02315199
0.01703745
0.02544171
0.007033557
0.008288456
0.01051975
0.008083988
0.01260667
0.01030886
0.01142429
0.009639741
0.01571371
0.0158136
0.01755448
0.009809556
0.01132769
0.006330293
0.008814769
0.0132276
0.006081515
0.01425782
0.009190981
0.01214576
0.008517845
0.01463172
0.0227461
0.02028827
0.01734213
0.01759989
0.01135977
0.01524993
0.01435029
0.0124024
0.01474013
0.01424535
0.01958936
0.0191955
0.01854632
0.01762199
0.02138562
0.02679767
0.02484021
0.006307815
0.01046192
0.008638404
0.007030972
0.01065443
0.01047065
0.01900817
0.02398878
0.02079193
0.01692455
0.04269191
0.02963505
0.0501804
)


65
(
0.001862972
0.003131206
0.002725887
0.001722765
0.02734179
0.003274563
0.0079057
0.02342592
0.00573232
0.1577383
0.01656874
0.0111493
0.07238476
0.004341311
0.006053901
0.007906861
0.00768417
0.007190098
0.00507058
0.009015244
0.003571699
0.005602305
0.008257552
0.007077662
0.00577768
0.003126506
0.004053438
0.003870199
0.004093822
0.001577194
0.006094804
0.005743171
0.003422863
0.006708606
0.008834695
0.008425323
0.009637904
0.009717203
0.01464442
0.005628606
0.008223615
0.008509782
0.009064442
0.01409655
0.008004138
0.01319692
0.01701853
0.01121324
0.02067276
0.01691693
0.01971562
0.02708814
0.001544874
0.002858037
0.003190552
0.0036586
0.01091771
0.00191636
0.007880249
0.0243421
0.004847297
0.07533606
0.0212258
0.00615986
0.2266036
)


65
(
0.004149959
0.005519693
0.004404004
0.002293207
0.00202133
0.006299242
0.007780555
0.008371519
0.008241488
0.005361583
0.01155947
0.01508827
0.01659793
0.007055616
0.006412252
0.006082951
0.00470605
0.007957223
0.008680428
0.004466712
0.008068256
0.008243042
0.005559088
0.007039312
0.002796907
0.005841583
0.002498567
0.003078425
0.005676701
0.002435007
0.006603599
0.004323907
0.02655443
0.005100894
0.0107021
0.03170155
0.0186551
0.14095
0.01682317
0.009165441
0.01112065
0.008402443
0.006322365
0.007845077
0.01622447
0.01279903
0.01208677
0.01717093
0.01132748
0.01725318
0.03369059
0.02244755
0.003759225
0.005649468
0.003152545
0.001938344
0.002321359
0.02114785
0.00723821
0.006103169
0.01977642
0.003249619
0.02256915
0.2431836
0.0741531
)


65
(
0.004493119
0.006155217
0.003014535
0.001528754
0.00307428
0.009241107
0.006664616
0.005077089
0.009305517
0.004281058
0.007170838
0.01220741
0.007177673
0.004089348
0.002239316
0.003423644
0.001913372
0.006485915
0.008566935
0.00391841
0.009069688
0.00843635
0.005499599
0.007033555
0.006240634
0.01146537
0.2319293
0.02385404
0.003885765
0.001335499
0.01901038
0.04030071
0.001952649
0.01220459
0.00996325
0.003286772
0.005784554
0.002442137
0.006526123
0.2319293
0.05367233
0.0131039
0.001752413
0.001811181
0.02055407
0.01063479
0.003553332
0.01547967
0.001913881
0.005461877
0.007306865
0.003030618
0.02163493
0.01983115
0.01654215
0.01071768
0.008019359
0.01620532
0.01446343
0.009713754
0.0159229
0.006785105
0.01103359
0.0158592
0.00899575
)


65
(
0.01958188
0.01811534
0.006914133
0.002210002
0.003417246
0.02033194
0.01163967
0.006234282
0.01823081
0.004296635
0.009654526
0.01565709
0.007360193
0.002761254
0.002577326
0.005140967
0.003433157
0.007197908
0.006472757
0.006426161
0.006633933
0.008086905
0.007683364
0.008288455
0.008702483
0.01041991
0.02302825
0.006527226
0.005206959
0.002280496
0.01480448
0.02743752
0.004022175
0.01760471
0.01433578
0.006328535
0.009709722
0.005791342
0.01395806
0.02385404
0.1131019
0.2290481
0.03084806
0.008186974
0.005464555
0.02555251
0.01116405
0.009015765
0.004168954
0.00672562
0.004495134
0.003366813
0.01732176
0.01957837
0.02138148
0.01789972
0.01371521
0.0119075
0.01798874
0.01406997
0.01425378
0.01029845
0.01261652
0.01356804
0.01065157
)


65
(
0.05094985
0.04923571
0.02440572
0.005256636
0.005349588
0.02401167
0.02315579
0.009488532
0.02424708
0.005162153
0.01207045
0.01389059
0.007083656
0.002690833
0.004169933
0.009490834
0.007179345
0.01016461
0.006464066
0.01074884
0.00577826
0.008744417
0.01110976
0.01051975
0.01136611
0.009884794
0.006688423
0.004324322
0.005979643
0.003182657
0.01128839
0.01314996
0.005644013
0.01152573
0.01183574
0.007845871
0.0100918
0.007781438
0.01349155
0.003885766
0.01276782
0.05112326
0.1325658
0.03018301
0.004505242
0.02896693
0.02528627
0.008799229
0.01215058
0.01119436
0.006866754
0.007573244
0.01219482
0.01619166
0.01990998
0.02045751
0.01879281
0.009797871
0.01943583
0.01823054
0.01340382
0.01512821
0.01500183
0.01423833
0.01449535
)


65
(
0.2284183
0.07653317
0.02623689
0.002541654
0.002135872
0.01706508
0.01302818
0.004077483
0.01427941
0.002013137
0.005483027
0.006343648
0.002858741
0.00154057
0.002578447
0.007283243
0.006759727
0.006612794
0.003952577
0.01056189
0.003915549
0.006184965
0.009554135
0.008083987
0.01104599
0.007647331
0.003695896
0.002234037
0.003606278
0.002077421
0.006465407
0.007968985
0.004208565
0.008504597
0.008273581
0.005760227
0.00715467
0.006558346
0.01124823
0.001335499
0.00443355
0.01468723
0.1792952
0.04844654
0.002020564
0.01460733
0.01956348
0.004104877
0.0120364
0.006784383
0.003861466
0.005642624
0.008915994
0.01230894
0.01709304
0.02103626
0.01988037
0.006850791
0.01609676
0.01668955
0.009762652
0.01486053
0.01202538
0.01039124
0.01236576
)


65
(
0.01319272
0.02069849
0.01285344
0.005103463
0.006980258
0.01535543
0.01917229
0.01123052
0.01881685
0.007352096
0.01348656
0.01590795
0.009933537
0.005538572
0.006102495
0.009958142
0.005874403
0.01462851
0.01177641
0.008999898
0.009457452
0.01244409
0.01112616
0.01260667
0.01033576
0.01293048
0.01862434
0.01379673
0.01206461
0.005392407
0.02679302
0.02747389
0.007584354
0.01523722
0.01791083
0.01084886
0.01487001
0.008565016
0.01465168
0.01901038
0.04528007
0.05130686
0.01622104
0.01280155
0.01267152
0.03690235
0.01861788
0.01986316
0.009386507
0.01562247
0.01257168
0.00928252
0.01680477
0.02031155
0.02020361
0.01639371
0.01490888
0.01491172
0.0210885
0.01732008
0.01844047
0.01346738
0.01749347
0.02007668
0.01597795
)


65
(
0.004634233
0.007703222
0.004719094
0.002722058
0.005195652
0.008806232
0.009772839
0.007787799
0.0105244
0.006418818
0.009411945
0.01271007
0.009091637
0.009527548
0.00502377
0.005853945
0.002900397
0.01269388
0.01680566
0.005175691
0.01348059
0.01301428
0.007537252
0.01030886
0.00728896
0.0141057
0.0531342
0.1341487
0.0181158
0.005814114
0.05411836
0.03826738
0.005635037
0.01092209
0.01524403
0.008357886
0.01224649
0.005023619
0.008599321
0.04030072
0.03960356
0.01662441
0.003765768
0.00447635
0.02438017
0.0190382
0.008199948
0.02379383
0.004832811
0.01162885
0.01520331
0.007351311
0.01971376
0.02023475
0.01621199
0.0108302
0.009401621
0.01949277
0.01719696
0.01236737
0.02010504
0.009142025
0.01525889
0.02323923
0.01348853
)


65
(
0.01455174
0.09072133
0.1962876
0.06191029
0.01536226
0.004500579
0.02687177
0.01511341
0.008125067
0.005788352
0.007248022
0.004476905
0.003887787
0.002066371
0.008016161
0.02681079
0.03365903
0.01335392
0.005089485
0.02147536
0.00389641
0.007485929
0.01550016
0.01142429
0.01295941
0.007258406
0.002577668
0.002628949
0.005534788
0.003884232
0.007258989
0.00612571
0.007071906
0.006231341
0.007916611
0.008104767
0.008425133
0.009176194
0.01010171
0.00195265
0.005291482
0.007963581
0.01474143
0.02363931
0.003710503
0.01382382
0.01703333
0.006480409
0.01458933
0.01000782
0.007540324
0.01026842
0.007264797
0.01068204
0.01308551
0.01546859
0.02000962
0.007639441
0.01659319
0.01983173
0.01130438
0.02121307
0.01631179
0.01514964
0.02110383
)


65
(
0.002334036
0.004658061
0.003577747
0.002927027
0.006434689
0.005183648
0.008012405
0.008067772
0.0069761
0.007600668
0.008125656
0.009555535
0.009092949
0.04113448
0.009486325
0.005430223
0.00219775
0.01813132
0.03640488
0.00368646
0.01892462
0.01511209
0.005967119
0.00963974
0.005134318
0.01311091
0.006772742
0.2159122
0.1278816
0.03569936
0.03488706
0.008847634
0.008371802
0.002893368
0.006081776
0.008270771
0.007825912
0.003953244
0.003465694
0.01220459
0.01272468
0.005212409
0.001967941
0.003344322
0.01644335
0.00982042
0.005932451
0.01516371
0.004370983
0.009011926
0.01509367
0.007512633
0.01477361
0.01546566
0.0110139
0.007247272
0.007269384
0.02079638
0.01406618
0.01077872
0.02002344
0.008616024
0.01560384
0.03071419
0.01603737
)


65
(
0.004205592
0.009174349
0.008725031
0.0072419
0.01214098
0.007246914
0.01570458
0.01412264
0.01084098
0.0110703
0.01226036
0.01176116
0.01122387
0.02334778
0.03316722
0.01674259
0.006482934
0.0400889
0.03141529
0.00783777
0.01426533
0.018576
0.0113155
0.0157137
0.008053311
0.01339494
0.009328448
0.03197115
0.03843886
0.02153651
0.03872468
0.01666708
0.01656878
0.008137135
0.01464991
0.01749845
0.01760981
0.01121538
0.01046762
0.009963249
0.01617524
0.01003204
0.004383263
0.006668623
0.01302499
0.01631446
0.01045785
0.0161756
0.007371368
0.01250662
0.01504956
0.009999437
0.01377564
0.01677915
0.01388824
0.01044383
0.01139988
0.01797527
0.01845088
0.01599212
0.02086864
0.01359901
0.0202318
0.03033859
0.0218835
)


65
(
0.008916491
0.02611503
0.05177201
0.03799895
0.02608143
0.007620972
0.03681099
0.02595247
0.01380269
0.01312571
0.01453179
0.009641177
0.009333145
0.004802124
0.02830213
0.04742636
0.03068321
0.02961
0.01019953
0.01924798
0.005931851
0.01146243
0.01802877
0.0158136
0.01187023
0.009033516
0.003484399
0.004798812
0.01024311
0.007472963
0.01175746
0.008070963
0.01100081
0.006979525
0.01011511
0.01174808
0.01161164
0.01153284
0.01105458
0.003286772
0.008079947
0.009759556
0.009900452
0.01525556
0.005813314
0.01636068
0.01595392
0.009390179
0.01241088
0.01197299
0.01035269
0.01119945
0.008979524
0.0128314
0.01365481
0.01367733
0.01755439
0.01069259
0.01866096
0.02061661
0.01506127
0.02073576
0.02004836
0.02160676
0.02523155
)


65
(
0.006329949
0.01579154
0.02009731
0.01546278
0.01878113
0.008142877
0.0258817
0.02052621
0.01356835
0.01332812
0.01494715
0.01183611
0.01144969
0.01119613
0.04324751
0.03295248
0.01432932
0.04258899
0.01942289
0.01285415
0.0094505
0.01595995
0.01561556
0.01755448
0.01017414
0.01143888
0.005561379
0.01049492
0.01894559
0.01290151
0.02082341
0.011823
0.01463306
0.008076093
0.01298161
0.01541211
0.01531723
0.01250408
0.01170071
0.005784556
0.01227779
0.01110349
0.007115828
0.01063252
0.008828216
0.01804145
0.01399697
0.01297758
0.01010929
0.01315552
0.01297972
0.0111214
0.01135977
0.01524993
0.01435029
0.0124024
0.01474013
0.01424535
0.01958936
0.0191955
0.01854632
0.01762199
0.02138562
0.02679767
0.02484021
)


65
(
0.001394844
0.00483217
0.04461738
0.1782294
0.04072164
0.001987293
0.01439318
0.01794711
0.004009053
0.0111636
0.006468014
0.003749303
0.005451231
0.001917201
0.07935763
0.1051001
0.1371703
0.01652901
0.003821609
0.0150424
0.00194907
0.00427535
0.009554948
0.006824038
0.00577768
0.003161721
0.001578721
0.002609841
0.007437981
0.00710211
0.006664493
0.004034501
0.01070935
0.004013632
0.00624908
0.009579185
0.008111304
0.01098919
0.007744249
0.001698878
0.003749031
0.003434393
0.003703448
0.008519551
0.003869153
0.0076959
0.008878111
0.005637223
0.008939424
0.007608762
0.00788706
0.009054632
0.005628606
0.008223615
0.008509782
0.009064442
0.01409655
0.008004138
0.01319692
0.01701853
0.01121324
0.02067276
0.01691693
0.01971562
0.02708814
)


65
(
0.001761733
0.004267057
0.004738031
0.006087805
0.0126223
0.003743346
0.009743633
0.01158149
0.005930744
0.01112367
0.008590242
0.007739499
0.009758705
0.1592328
0.1329263
0.008783724
0.002599499
0.03336669
0.03516011
0.002760828
0.009352069
0.01013484
0.004346945
0.006970885
0.002765756
0.005841583
0.001913719
0.01264601
0.04632191
0.126174
0.01478535
0.004471862
0.0215105
0.002902825
0.006049875
0.01384862
0.009733755
0.009618792
0.005126256
0.004016077
0.006144044
0.003408282
0.001920064
0.003882576
0.008287827
0.007453917
0.006015588
0.009089351
0.00515032
0.007776734
0.01187392
0.007890721
0.009165441
0.01112065
0.008402443
0.006322365
0.007845077
0.01622447
0.01279903
0.01208677
0.01717093
0.01132748
0.01725318
0.03369059
0.02244755
)

