/*--------------------------------*- C++ -*----------------------------------*\
| =========                 |                                                 |
| \\      /  F ield         | OpenFOAM: The Open Source CFD Toolbox           |
|  \\    /   O peration     | Version:  2112                                  |
|   \\  /    A nd           | Website:  www.openfoam.com                      |
|    \\/     M anipulation  |                                                 |
\*---------------------------------------------------------------------------*/
FoamFile
{
    version     2.0;
    format      ascii;
    arch        "LSB;label=32;scalar=64";
    class       labelListList;
    location    "constant/space";
    object      finalAgglom;
}
// * * * * * * * * * * * * * * * * * * * * * * * * * * * * * * * * * * * * * //


6
(

225
(
0
0
0
0
1
1
2
2
2
2
3
3
3
3
3
0
0
0
0
1
1
2
2
2
2
3
3
3
3
3
0
0
0
0
1
1
2
2
2
2
3
3
3
3
4
0
0
0
1
1
1
2
2
2
2
3
3
4
4
4
5
5
0
1
1
1
6
6
6
6
7
7
4
4
4
5
5
8
1
1
1
6
6
6
6
7
7
4
4
4
5
5
8
8
8
1
6
6
6
6
7
7
9
9
4
5
5
8
8
8
8
10
6
6
6
7
7
9
4
4
5
5
8
8
8
8
10
10
10
6
7
7
9
4
4
5
5
11
8
8
8
10
10
10
10
7
7
9
9
4
5
5
11
11
11
8
10
10
10
10
7
7
9
9
9
5
5
11
11
11
11
10
10
10
10
7
7
9
9
9
11
11
11
11
11
11
12
12
12
12
12
12
9
9
9
11
11
11
11
11
11
12
12
12
12
12
12
12
12
9
11
11
11
11
11
11
12
12
12
12
12
12
12
12
9
)


225
(
0
0
0
0
1
1
1
1
1
1
2
2
3
3
3
0
0
0
0
1
1
1
1
1
1
2
2
3
3
3
0
0
0
0
0
4
1
1
1
1
2
2
3
3
3
0
0
0
5
5
4
4
4
4
2
2
2
3
3
3
5
5
5
5
5
4
4
4
4
2
2
2
3
3
6
5
5
5
5
5
4
4
4
4
2
2
2
3
3
6
7
7
5
5
8
8
4
4
4
2
9
9
6
6
6
7
7
5
5
8
8
10
10
10
10
9
9
6
6
6
7
7
7
8
8
8
10
10
10
10
9
9
6
6
6
7
7
7
8
8
8
8
10
10
9
9
9
6
11
11
7
7
7
12
12
8
8
10
10
9
9
9
6
6
11
7
7
7
12
12
8
8
10
10
9
9
9
6
6
11
12
12
12
12
12
12
8
10
10
9
11
11
11
11
11
12
12
12
12
12
12
12
12
11
11
11
11
11
11
11
12
12
12
12
12
12
12
12
11
11
11
11
11
11
11
)


225
(
0
0
0
0
1
1
1
1
1
1
2
2
3
3
3
0
0
0
0
1
1
1
1
1
1
2
2
3
3
3
0
0
0
0
0
4
1
1
1
1
2
2
3
3
3
0
0
0
5
5
4
4
4
4
2
2
2
3
3
3
5
5
5
5
5
4
4
4
4
2
2
2
3
3
6
5
5
5
5
5
4
4
4
4
2
2
2
3
3
6
7
7
5
5
8
8
4
4
4
2
9
9
6
6
6
7
7
5
5
8
8
10
10
10
10
9
9
6
6
6
7
7
7
8
8
8
10
10
10
10
9
9
6
6
6
7
7
7
8
8
8
8
10
10
9
9
9
6
11
11
7
7
7
12
12
8
8
10
10
9
9
9
6
6
11
7
7
7
12
12
8
8
10
10
9
9
9
6
6
11
12
12
12
12
12
12
8
10
10
9
11
11
11
11
11
12
12
12
12
12
12
12
12
11
11
11
11
11
11
11
12
12
12
12
12
12
12
12
11
11
11
11
11
11
11
)


225
(
0
0
0
0
1
1
1
1
1
1
2
2
3
3
3
0
0
0
0
1
1
1
1
1
1
2
2
3
3
3
0
0
0
0
0
4
1
1
1
1
2
2
3
3
3
0
0
0
5
5
4
4
4
4
2
2
2
3
3
3
5
5
5
5
5
4
4
4
4
2
2
2
3
3
6
5
5
5
5
5
4
4
4
4
2
2
2
3
3
6
7
7
5
5
8
8
4
4
4
2
9
9
6
6
6
7
7
5
5
8
8
10
10
10
10
9
9
6
6
6
7
7
7
8
8
8
10
10
10
10
9
9
6
6
6
7
7
7
8
8
8
8
10
10
9
9
9
6
11
11
7
7
7
12
12
8
8
10
10
9
9
9
6
6
11
7
7
7
12
12
8
8
10
10
9
9
9
6
6
11
12
12
12
12
12
12
8
10
10
9
11
11
11
11
11
12
12
12
12
12
12
12
12
11
11
11
11
11
11
11
12
12
12
12
12
12
12
12
11
11
11
11
11
11
11
)


225
(
0
0
0
0
1
1
2
2
2
2
3
3
3
3
3
0
0
0
0
1
1
2
2
2
2
3
3
3
3
3
0
0
0
0
1
1
2
2
2
2
3
3
3
3
4
0
0
0
1
1
1
2
2
2
2
3
3
4
4
4
5
5
0
1
1
1
6
6
6
6
7
7
4
4
4
5
5
8
1
1
1
6
6
6
6
7
7
4
4
4
5
5
8
8
8
1
6
6
6
6
7
7
9
9
4
5
5
8
8
8
8
10
6
6
6
7
7
9
4
4
5
5
8
8
8
8
10
10
10
6
7
7
9
4
4
5
5
11
8
8
8
10
10
10
10
7
7
9
9
4
5
5
11
11
11
8
10
10
10
10
7
7
9
9
9
5
5
11
11
11
11
10
10
10
10
7
7
9
9
9
11
11
11
11
11
11
12
12
12
12
12
12
9
9
9
11
11
11
11
11
11
12
12
12
12
12
12
12
12
9
11
11
11
11
11
11
12
12
12
12
12
12
12
12
9
)


225
(
0
0
0
0
1
1
2
2
2
2
3
3
3
3
3
0
0
0
0
1
1
2
2
2
2
3
3
3
3
3
0
0
0
0
1
1
2
2
2
2
3
3
3
3
4
0
0
0
1
1
1
2
2
2
2
3
3
4
4
4
5
5
0
1
1
1
6
6
6
6
7
7
4
4
4
5
5
8
1
1
1
6
6
6
6
7
7
4
4
4
5
5
8
8
8
1
6
6
6
6
7
7
9
9
4
5
5
8
8
8
8
10
6
6
6
7
7
9
4
4
5
5
8
8
8
8
10
10
10
6
7
7
9
4
4
5
5
11
8
8
8
10
10
10
10
7
7
9
9
4
5
5
11
11
11
8
10
10
10
10
7
7
9
9
9
5
5
11
11
11
11
10
10
10
10
7
7
9
9
9
11
11
11
11
11
11
12
12
12
12
12
12
9
9
9
11
11
11
11
11
11
12
12
12
12
12
12
12
12
9
11
11
11
11
11
11
12
12
12
12
12
12
12
12
9
)

)


// ************************************************************************* //
