/*--------------------------------*- C++ -*----------------------------------*\
| =========                 |                                                 |
| \\      /  F ield         | OpenFOAM: The Open Source CFD Toolbox           |
|  \\    /   O peration     | Version:  2112                                  |
|   \\  /    A nd           | Website:  www.openfoam.com                      |
|    \\/     M anipulation  |                                                 |
\*---------------------------------------------------------------------------*/
FoamFile
{
    version     2.0;
    format      ascii;
    arch        "LSB;label=32;scalar=64";
    class       labelListList;
    location    "constant/space";
    object      finalAgglom;
}
// * * * * * * * * * * * * * * * * * * * * * * * * * * * * * * * * * * * * * //


6
(

450
(
0
0
0
0
0
0
0
0
1
1
1
1
2
2
2
2
2
2
2
2
3
3
3
3
3
3
3
3
3
3
0
0
0
0
0
0
0
0
1
1
1
1
2
2
2
2
2
2
2
2
3
3
3
3
3
3
3
3
3
3
0
0
0
0
0
0
0
0
1
1
1
1
2
2
2
2
2
2
2
2
3
3
3
3
3
3
3
3
4
4
0
0
0
0
0
0
1
1
1
1
1
1
2
2
2
2
2
2
2
2
3
3
3
3
4
4
4
4
4
4
5
5
5
5
0
0
1
1
1
1
1
1
6
6
6
6
6
6
6
6
7
7
7
7
4
4
4
4
4
4
5
5
5
5
8
8
1
1
1
1
1
1
6
6
6
6
6
6
6
6
7
7
7
7
4
4
4
4
4
4
5
5
5
5
8
8
8
8
8
8
1
1
6
6
6
6
6
6
6
6
7
7
7
7
9
9
9
9
4
4
5
5
5
5
8
8
8
8
8
8
8
8
10
10
6
6
6
6
6
6
7
7
7
7
9
9
4
4
4
4
5
5
5
5
8
8
8
8
8
8
8
8
10
10
10
10
10
10
6
6
7
7
7
7
9
9
4
4
4
4
5
5
5
5
11
11
8
8
8
8
8
8
10
10
10
10
10
10
10
10
7
7
7
7
9
9
9
9
4
4
5
5
5
5
11
11
11
11
11
11
8
8
10
10
10
10
10
10
10
10
7
7
7
7
9
9
9
9
9
9
5
5
5
5
11
11
11
11
11
11
11
11
10
10
10
10
10
10
10
10
7
7
7
7
9
9
9
9
9
9
11
11
11
11
11
11
11
11
11
11
11
11
12
12
12
12
12
12
12
12
12
12
12
12
9
9
9
9
9
9
11
11
11
11
11
11
11
11
11
11
11
11
12
12
12
12
12
12
12
12
12
12
12
12
12
12
12
12
9
9
11
11
11
11
11
11
11
11
11
11
11
11
12
12
12
12
12
12
12
12
12
12
12
12
12
12
12
12
9
9
)


450
(
0
0
0
0
0
0
0
0
1
1
1
1
1
1
1
1
1
1
1
1
2
2
2
2
3
3
3
3
3
3
0
0
0
0
0
0
0
0
1
1
1
1
1
1
1
1
1
1
1
1
2
2
2
2
3
3
3
3
3
3
0
0
0
0
0
0
0
0
0
0
4
4
1
1
1
1
1
1
1
1
2
2
2
2
3
3
3
3
3
3
0
0
0
0
0
0
5
5
5
5
4
4
4
4
4
4
4
4
2
2
2
2
2
2
3
3
3
3
3
3
5
5
5
5
5
5
5
5
5
5
4
4
4
4
4
4
4
4
2
2
2
2
2
2
3
3
3
3
6
6
5
5
5
5
5
5
5
5
5
5
4
4
4
4
4
4
4
4
2
2
2
2
2
2
3
3
3
3
6
6
7
7
7
7
5
5
5
5
8
8
8
8
4
4
4
4
4
4
2
2
9
9
9
9
6
6
6
6
6
6
7
7
7
7
5
5
5
5
8
8
8
8
10
10
10
10
10
10
10
10
9
9
9
9
6
6
6
6
6
6
7
7
7
7
7
7
8
8
8
8
8
8
10
10
10
10
10
10
10
10
9
9
9
9
6
6
6
6
6
6
7
7
7
7
7
7
8
8
8
8
8
8
8
8
10
10
10
10
9
9
9
9
9
9
6
6
11
11
11
11
7
7
7
7
7
7
12
12
12
12
8
8
8
8
10
10
10
10
9
9
9
9
9
9
6
6
6
6
11
11
7
7
7
7
7
7
12
12
12
12
8
8
8
8
10
10
10
10
9
9
9
9
9
9
6
6
6
6
11
11
12
12
12
12
12
12
12
12
12
12
12
12
8
8
10
10
10
10
9
9
11
11
11
11
11
11
11
11
11
11
12
12
12
12
12
12
12
12
12
12
12
12
12
12
12
12
11
11
11
11
11
11
11
11
11
11
11
11
11
11
12
12
12
12
12
12
12
12
12
12
12
12
12
12
12
12
11
11
11
11
11
11
11
11
11
11
11
11
11
11
)


900
(
0
0
0
0
0
0
0
0
0
0
0
1
1
1
1
1
1
2
2
2
2
2
2
2
2
2
3
3
3
3
0
0
0
0
0
0
0
0
0
0
0
1
1
1
1
1
1
2
2
2
2
2
2
2
2
2
3
3
3
3
0
0
0
0
0
0
0
0
0
0
0
1
1
1
1
1
1
2
2
2
2
2
2
2
2
2
3
3
3
3
0
0
0
0
0
0
0
0
0
0
0
1
1
1
1
1
1
2
2
2
2
2
2
2
2
2
3
3
3
3
0
0
0
0
0
0
0
4
0
0
0
1
1
1
1
1
1
2
2
2
2
2
2
2
2
2
3
3
3
3
0
0
0
0
0
4
4
4
4
4
0
5
5
1
1
1
1
1
1
2
6
6
2
2
2
2
3
3
3
3
0
0
7
7
7
4
4
4
4
4
4
5
5
5
1
1
1
1
1
1
6
6
6
2
2
2
3
3
3
3
0
0
7
7
7
4
4
4
4
4
4
5
5
5
1
1
1
1
1
1
6
6
6
2
2
2
3
3
3
3
7
7
7
7
7
4
4
4
4
4
4
5
5
5
5
5
1
1
1
1
6
6
6
2
2
3
3
3
3
3
7
7
7
7
7
4
4
4
4
4
4
5
5
5
5
5
1
1
1
1
6
6
6
2
2
3
3
3
3
3
7
7
7
7
7
4
4
4
4
4
4
5
5
5
5
5
5
5
1
1
6
6
6
2
2
2
2
3
3
3
7
7
7
7
7
4
4
4
4
4
5
5
5
5
5
5
5
5
1
1
6
6
6
3
3
3
3
3
3
3
7
7
7
7
7
4
4
4
4
4
5
5
5
5
5
5
5
5
1
1
6
6
6
3
3
3
3
3
3
8
7
7
7
7
7
4
4
4
4
4
5
5
5
5
5
5
5
5
1
1
6
6
6
3
3
3
3
3
3
8
7
7
7
7
7
4
4
4
4
4
5
5
5
5
9
9
9
9
9
9
6
6
6
6
6
8
8
8
8
8
7
7
7
7
7
10
10
10
4
4
5
5
5
5
9
9
9
9
9
9
6
6
6
6
6
8
8
8
8
8
7
7
7
7
10
10
10
10
4
4
5
5
5
5
9
9
9
9
9
9
6
6
6
6
6
6
8
8
8
8
7
7
7
7
10
10
10
10
4
4
10
5
5
5
9
9
9
9
9
9
6
6
6
6
6
6
8
8
8
8
7
7
7
7
10
10
10
10
4
4
10
5
5
5
9
9
9
9
9
9
6
6
6
6
6
6
8
8
8
8
7
7
7
7
10
10
10
10
10
10
10
10
10
5
9
9
9
9
9
9
9
9
6
6
6
6
8
8
8
8
11
11
7
11
11
10
10
10
10
10
10
10
10
10
10
10
10
10
9
9
9
6
6
8
8
8
8
8
8
8
11
11
7
11
11
10
10
10
10
10
10
10
10
10
10
10
10
10
9
9
9
6
6
8
8
8
8
8
8
8
11
11
11
11
11
11
10
10
10
10
10
10
10
10
10
10
10
9
9
9
9
6
6
8
8
8
8
8
8
8
11
11
11
11
11
11
10
10
10
10
10
11
11
11
11
11
9
9
9
9
8
8
8
8
8
8
8
8
8
8
11
11
11
11
11
11
11
10
10
10
10
11
11
11
11
11
9
9
9
9
8
8
8
8
8
8
8
8
8
8
11
11
11
11
11
11
11
11
11
11
11
11
11
11
11
11
11
9
9
9
8
8
8
8
8
8
8
8
8
8
11
11
11
11
11
11
11
11
11
11
11
11
11
11
11
11
11
9
9
9
8
8
8
8
8
8
8
8
8
8
11
11
11
11
11
11
11
11
11
11
11
11
11
11
11
11
11
9
9
11
8
8
8
8
8
8
8
8
8
8
11
11
11
11
11
11
11
11
11
11
11
11
11
11
11
11
11
11
11
11
8
8
8
8
8
8
8
8
8
8
11
11
11
11
11
11
11
11
11
11
11
11
11
11
11
11
11
11
11
8
8
8
8
8
8
8
8
8
8
8
)


450
(
0
0
0
0
0
0
0
0
1
1
1
1
1
1
1
1
1
1
1
1
2
2
2
2
3
3
3
3
3
3
0
0
0
0
0
0
0
0
1
1
1
1
1
1
1
1
1
1
1
1
2
2
2
2
3
3
3
3
3
3
0
0
0
0
0
0
0
0
0
0
4
4
1
1
1
1
1
1
1
1
2
2
2
2
3
3
3
3
3
3
0
0
0
0
0
0
5
5
5
5
4
4
4
4
4
4
4
4
2
2
2
2
2
2
3
3
3
3
3
3
5
5
5
5
5
5
5
5
5
5
4
4
4
4
4
4
4
4
2
2
2
2
2
2
3
3
3
3
6
6
5
5
5
5
5
5
5
5
5
5
4
4
4
4
4
4
4
4
2
2
2
2
2
2
3
3
3
3
6
6
7
7
7
7
5
5
5
5
8
8
8
8
4
4
4
4
4
4
2
2
9
9
9
9
6
6
6
6
6
6
7
7
7
7
5
5
5
5
8
8
8
8
10
10
10
10
10
10
10
10
9
9
9
9
6
6
6
6
6
6
7
7
7
7
7
7
8
8
8
8
8
8
10
10
10
10
10
10
10
10
9
9
9
9
6
6
6
6
6
6
7
7
7
7
7
7
8
8
8
8
8
8
8
8
10
10
10
10
9
9
9
9
9
9
6
6
11
11
11
11
7
7
7
7
7
7
12
12
12
12
8
8
8
8
10
10
10
10
9
9
9
9
9
9
6
6
6
6
11
11
7
7
7
7
7
7
12
12
12
12
8
8
8
8
10
10
10
10
9
9
9
9
9
9
6
6
6
6
11
11
12
12
12
12
12
12
12
12
12
12
12
12
8
8
10
10
10
10
9
9
11
11
11
11
11
11
11
11
11
11
12
12
12
12
12
12
12
12
12
12
12
12
12
12
12
12
11
11
11
11
11
11
11
11
11
11
11
11
11
11
12
12
12
12
12
12
12
12
12
12
12
12
12
12
12
12
11
11
11
11
11
11
11
11
11
11
11
11
11
11
)


450
(
0
0
0
0
0
0
0
0
1
1
1
1
2
2
2
2
2
2
2
2
3
3
3
3
3
3
3
3
3
3
0
0
0
0
0
0
0
0
1
1
1
1
2
2
2
2
2
2
2
2
3
3
3
3
3
3
3
3
3
3
0
0
0
0
0
0
0
0
1
1
1
1
2
2
2
2
2
2
2
2
3
3
3
3
3
3
3
3
4
4
0
0
0
0
0
0
1
1
1
1
1
1
2
2
2
2
2
2
2
2
3
3
3
3
4
4
4
4
4
4
5
5
5
5
0
0
1
1
1
1
1
1
6
6
6
6
6
6
6
6
7
7
7
7
4
4
4
4
4
4
5
5
5
5
8
8
1
1
1
1
1
1
6
6
6
6
6
6
6
6
7
7
7
7
4
4
4
4
4
4
5
5
5
5
8
8
8
8
8
8
1
1
6
6
6
6
6
6
6
6
7
7
7
7
9
9
9
9
4
4
5
5
5
5
8
8
8
8
8
8
8
8
10
10
6
6
6
6
6
6
7
7
7
7
9
9
4
4
4
4
5
5
5
5
8
8
8
8
8
8
8
8
10
10
10
10
10
10
6
6
7
7
7
7
9
9
4
4
4
4
5
5
5
5
11
11
8
8
8
8
8
8
10
10
10
10
10
10
10
10
7
7
7
7
9
9
9
9
4
4
5
5
5
5
11
11
11
11
11
11
8
8
10
10
10
10
10
10
10
10
7
7
7
7
9
9
9
9
9
9
5
5
5
5
11
11
11
11
11
11
11
11
10
10
10
10
10
10
10
10
7
7
7
7
9
9
9
9
9
9
11
11
11
11
11
11
11
11
11
11
11
11
12
12
12
12
12
12
12
12
12
12
12
12
9
9
9
9
9
9
11
11
11
11
11
11
11
11
11
11
11
11
12
12
12
12
12
12
12
12
12
12
12
12
12
12
12
12
9
9
11
11
11
11
11
11
11
11
11
11
11
11
12
12
12
12
12
12
12
12
12
12
12
12
12
12
12
12
9
9
)


900
(
0
0
0
0
0
0
0
1
1
1
1
1
1
1
2
2
2
2
2
2
2
2
2
2
2
2
3
3
3
3
0
0
0
0
0
0
0
1
1
1
1
1
1
1
2
2
2
2
2
2
2
2
2
2
2
2
3
3
3
3
0
0
0
0
0
0
0
1
1
1
1
1
1
1
2
2
2
2
2
2
2
2
2
2
2
2
3
3
3
3
0
0
0
0
0
4
4
1
1
1
1
1
1
1
2
2
2
2
2
2
2
2
2
2
2
2
3
3
3
3
0
0
0
0
0
4
4
1
1
1
1
1
1
1
2
2
2
2
2
2
2
2
2
2
2
3
3
3
3
3
0
0
0
0
0
4
4
1
4
4
1
1
1
1
2
2
2
5
5
2
5
5
2
3
3
3
3
3
3
3
0
0
0
0
0
4
4
4
4
4
1
1
1
1
6
6
5
5
5
5
5
5
3
3
3
3
3
3
3
3
0
0
0
0
0
4
4
4
4
4
1
1
1
1
6
6
5
5
5
5
5
5
3
3
3
3
3
3
3
3
0
0
4
4
4
4
4
4
4
4
1
1
1
1
6
6
5
5
5
5
5
5
3
3
3
3
3
3
3
3
0
0
4
4
4
4
4
4
4
4
1
1
1
1
6
6
5
5
5
5
5
5
3
3
3
3
3
3
3
3
0
0
4
4
4
4
4
4
4
4
1
1
1
1
6
6
5
5
5
5
5
5
3
7
7
3
3
7
7
7
0
0
0
4
4
8
8
8
4
4
4
1
1
1
6
6
5
5
5
5
5
5
3
7
7
7
7
7
7
7
0
0
0
8
8
8
8
8
4
4
4
6
6
1
6
6
5
5
5
5
5
5
5
5
7
7
7
7
7
7
0
0
0
8
8
8
8
8
4
4
4
6
6
6
6
6
5
5
5
5
5
5
5
5
7
7
7
7
7
7
9
0
0
8
8
8
8
8
4
4
4
6
6
6
6
6
5
10
10
5
5
5
11
7
7
7
7
7
7
7
9
0
8
8
8
8
8
8
4
4
4
6
6
6
6
6
10
10
10
5
5
5
11
7
7
7
7
7
7
7
9
9
8
8
8
8
8
8
6
6
4
6
6
6
10
10
10
10
10
5
11
11
11
7
7
7
7
7
7
7
9
9
8
8
8
8
8
8
6
6
4
6
6
6
10
10
10
10
10
11
11
11
11
11
11
11
7
7
7
7
9
9
8
8
8
8
8
8
6
6
4
6
6
6
10
10
10
10
10
11
11
11
11
11
11
11
7
7
7
7
9
9
8
8
8
8
8
8
6
6
4
6
6
6
10
10
10
10
11
11
11
11
11
11
11
11
11
7
7
7
9
9
8
8
8
8
8
8
6
6
4
6
6
6
10
10
10
10
10
10
11
11
11
11
11
11
7
7
7
7
9
9
8
8
8
8
8
8
6
6
6
6
6
6
10
10
10
10
10
10
11
11
11
11
11
11
7
7
7
7
9
9
9
9
8
12
12
8
8
8
6
6
6
6
6
6
10
10
10
10
11
11
11
11
11
11
11
11
11
11
9
9
9
9
9
12
12
12
12
12
12
12
12
12
10
10
10
10
10
10
11
11
11
11
11
11
11
11
11
11
9
9
9
9
9
12
12
12
12
12
12
12
12
12
10
10
10
10
10
10
10
10
11
11
11
11
11
11
11
11
9
9
9
9
9
12
12
12
12
12
12
12
12
12
12
12
10
10
10
10
10
10
11
11
11
11
11
11
11
11
9
9
9
9
9
9
9
12
12
12
12
12
12
12
12
12
10
10
10
10
10
10
11
11
11
11
11
11
11
11
9
9
9
9
9
9
9
9
12
12
12
12
12
12
12
12
10
10
10
10
10
10
11
11
11
11
11
11
11
11
9
9
9
9
9
9
9
9
12
12
12
12
12
12
12
12
10
10
10
10
10
10
11
11
11
11
11
11
11
11
9
9
9
9
9
9
9
9
12
12
12
12
12
12
12
12
12
12
10
10
10
10
11
11
11
11
11
11
11
11
)

)


// ************************************************************************* //
